#======================================================================

# CRYSTAL DATA

#----------------------------------------------------------------------

data_VESTA_phase_1


_pd_phase_name                         ''
_cell_length_a                         4.40800
_cell_length_b                         5.38300
_cell_length_c                         8.34500
_cell_angle_alpha                      90
_cell_angle_beta                       117.65000
_cell_angle_gamma                      90
_symmetry_space_group_name_H-M         'P 21/c'
_symmetry_Int_Tables_number            14

loop_
_symmetry_equiv_pos_as_xyz
   'x, y, z'
   '-x, -y, -z'
   '-x, y+1/2, -z+1/2'
   'x, -y+1/2, z+1/2'

loop_
   _atom_site_label
   _atom_site_occupancy
   _atom_site_fract_x
   _atom_site_fract_y
   _atom_site_fract_z
   _atom_site_adp_type
   _atom_site_B_iso_or_equiv
   _atom_site_type_symbol
   Mg1        1.0    -0.022000      0.000000      0.693000     Biso  1.000000 Mg
   Mg2        1.0     0.702000      0.360000      0.425000     Biso  1.000000 Mg
   C1         1.0     0.355000      0.282000      0.082000     Biso  1.000000 C
   O1         1.0     0.146000      0.334000      0.638000     Biso  1.000000 O
   O2         1.0     0.681000      0.245000      0.197000     Biso  1.000000 O
   O3         1.0     0.272000      0.168000     -0.080000     Biso  1.000000 O
   O4         1.0     0.295000      0.520000      0.064000     Biso  1.000000 O
