data_findsym-output
_audit_creation_method FINDSYM

_cell_length_a    8.9258900000
_cell_length_b    5.5654400000
_cell_length_c    4.2208400000
_cell_angle_alpha 90.0000000000
_cell_angle_beta  90.0000000000
_cell_angle_gamma 90.0000000000
_cell_volume      209.6765803840

_symmetry_space_group_name_H-M "P 21/n 21/m 21/a"
_symmetry_Int_Tables_number 62
_space_group.reference_setting '062:-P 2ac 2n'
_space_group.transform_Pp_abc a,b,c;0,0,0

loop_
_space_group_symop_id
_space_group_symop_operation_xyz
1 x,y,z
2 x+1/2,-y+1/2,-z+1/2
3 -x,y+1/2,-z
4 -x+1/2,-y,z+1/2
5 -x,-y,-z
6 -x+1/2,y+1/2,z+1/2
7 x,-y+1/2,z
8 x+1/2,y,-z+1/2

loop_
_atom_site_label
_atom_site_type_symbol
_atom_site_symmetry_multiplicity
_atom_site_Wyckoff_label
_atom_site_fract_x
_atom_site_fract_y
_atom_site_fract_z
_atom_site_occupancy
_atom_site_fract_symmform
Mg1 Mg   4 b 0.00000  0.00000 0.50000 1.00000 0,0,0    
Mg2 Mg   4 c 0.72083  0.25000 0.53116 1.00000 Dx,0,Dz  
C1  C    4 c -0.09668 0.25000 0.08690 1.00000 Dx,0,Dz  
O1  O    4 c -0.09078 0.25000 0.76964 1.00000 Dx,0,Dz  
O2  O    4 c 0.54782  0.25000 0.28483 1.00000 Dx,0,Dz  
O3  O    8 d 0.16924  0.55225 0.78562 1.00000 Dx,Dy,Dz 